<?xml version="1.0" encoding="UTF-8"?>

<!-- generated on 2026-03-05 11:16:13 by Eclipse SUMO netedit Version 1.24.0
<neteditConfiguration xmlns:xsi="http://www.w3.org/2001/XMLSchema-instance" xsi:noNamespaceSchemaLocation="http://sumo.dlr.de/xsd/neteditConfiguration.xsd">

    <input>
        <sumocfg-file value="D:\Y4S1\RP\test\test1.sumocfg"/>
        <route-files value="D:\Y4S1\RP\test\test1.rou.xml"/>
        <sumo-net-file value="D:\Y4S1\RP\test\test1.net.xml"/>
    </input>

    <output>
        <output-file value="D:\Y4S1\RP\test\test1.net.xml"/>
    </output>

    <processing>
        <geometry.min-radius.fix.railways value="false"/>
        <geometry.avoid-overlap value="false"/>
        <geometry.max-grade.fix value="false"/>
        <offset.disable-normalization value="true"/>
        <lefthand value="0"/>
    </processing>

    <junctions>
        <no-internal-links value="false"/>
        <no-turnarounds value="true"/>
        <junctions.corner-detail value="5"/>
        <junctions.limit-turn-speed value="5.50"/>
        <rectangular-lane-cut value="0"/>
    </junctions>

    <pedestrian>
        <walkingareas value="0"/>
    </pedestrian>

</neteditConfiguration>
-->

<net version="1.20" junctionCornerDetail="5" limitTurnSpeed="5.50" avoidOverlap="0" xmlns:xsi="http://www.w3.org/2001/XMLSchema-instance" xsi:noNamespaceSchemaLocation="http://sumo.dlr.de/xsd/net_file.xsd">

    <location netOffset="0.00,0.00" convBoundary="-784.05,-320.47,939.69,414.85" origBoundary="-10000000000.00,-10000000000.00,10000000000.00,10000000000.00" projParameter="!"/>

    <edge id=":J0_w0" function="walkingarea">
        <lane id=":J0_w0_0" index="0" allow="pedestrian" speed="2.78" length="14.80" width="2.00" shape="-784.05,12.83 -784.04,10.83 -784.06,27.63 -784.05,25.63"/>
    </edge>
    <edge id=":J1_0" function="internal">
        <lane id=":J1_0_0" index="0" speed="13.89" length="7.50" shape="-127.98,23.74 -129.56,24.08 -130.68,25.14 -131.36,26.89 -131.59,29.34"/>
    </edge>
    <edge id=":J1_1" function="internal">
        <lane id=":J1_1_0" index="0" disallow="pedestrian" speed="13.89" length="16.81" shape="-127.98,23.74 -144.79,23.74"/>
        <lane id=":J1_1_1" index="1" disallow="pedestrian" speed="13.89" length="16.81" shape="-127.98,20.54 -144.79,20.54"/>
    </edge>
    <edge id=":J1_3" function="internal">
        <lane id=":J1_3_0" index="0" disallow="pedestrian" speed="13.89" length="16.82" shape="-144.80,14.14 -127.98,14.14"/>
        <lane id=":J1_3_1" index="1" disallow="pedestrian" speed="13.89" length="16.82" shape="-144.80,17.34 -127.98,17.34"/>
    </edge>
    <edge id=":J1_5" function="internal">
        <lane id=":J1_5_0" index="0" disallow="pedestrian" speed="13.89" length="17.79" shape="-144.80,17.34 -140.41,18.09 -137.29,20.33 -135.41,24.09 -134.79,29.34"/>
    </edge>
    <edge id=":J1_6" function="internal">
        <lane id=":J1_6_0" index="0" disallow="pedestrian" speed="13.89" length="7.49" shape="-141.19,29.34 -141.41,26.89 -142.09,25.14 -143.21,24.09 -144.79,23.74"/>
        <lane id=":J1_6_1" index="1" disallow="pedestrian" speed="13.89" length="12.63" shape="-137.99,29.34 -138.41,25.49 -139.69,22.74 -141.81,21.09 -144.79,20.54"/>
    </edge>
    <edge id=":J1_8" function="internal">
        <lane id=":J1_8_0" index="0" speed="13.89" length="17.78" shape="-137.99,29.34 -137.36,24.09 -135.48,20.33 -132.35,18.08 -127.98,17.34"/>
    </edge>
    <edge id=":J1_w0" function="walkingarea">
        <lane id=":J1_w0_0" index="0" allow="pedestrian" speed="2.78" length="14.99" width="3.20" shape="-144.79,25.34 -144.79,27.34 -142.79,29.34 -139.59,29.34 -136.39,29.34 -133.19,29.34 -129.99,29.34 -127.98,25.34 -127.98,22.14 -127.98,18.94 -127.98,15.74 -127.98,12.54 -144.80,10.54 -144.80,12.54"/>
    </edge>
    <edge id=":J10_w0" function="walkingarea">
        <lane id=":J10_w0_0" index="0" allow="pedestrian" speed="2.78" length="9.60" width="12.80" shape="939.69,18.65 939.70,25.05 939.68,12.25 939.69,18.65"/>
    </edge>
    <edge id=":J13_w0" function="walkingarea">
        <lane id=":J13_w0_0" index="0" allow="pedestrian" speed="2.78" length="9.60" width="12.80" shape="443.97,-320.47 450.37,-320.47 437.57,-320.47 443.97,-320.47"/>
    </edge>
    <edge id=":J4_0" function="internal">
        <lane id=":J4_0_0" index="0" allow="pedestrian" speed="13.89" length="4.01" width="2.00" shape="-572.65,26.79 -576.67,26.79"/>
        <lane id=":J4_0_1" index="1" disallow="pedestrian" speed="13.89" length="4.01" shape="-572.66,24.19 -576.66,24.19"/>
        <lane id=":J4_0_2" index="2" disallow="pedestrian" speed="13.89" length="4.01" shape="-572.66,20.99 -576.66,20.99"/>
    </edge>
    <edge id=":J4_3" function="internal">
        <lane id=":J4_3_0" index="0" allow="pedestrian" speed="13.89" length="3.99" width="2.00" shape="-576.65,11.99 -572.67,11.99"/>
        <lane id=":J4_3_1" index="1" disallow="pedestrian" speed="13.89" length="3.99" shape="-576.66,14.59 -572.67,14.59"/>
        <lane id=":J4_3_2" index="2" disallow="pedestrian" speed="13.89" length="3.99" shape="-576.66,17.79 -572.66,17.79"/>
    </edge>
    <edge id=":J4_c0" function="crossing" crossingEdges="E00 -E0">
        <lane id=":J4_c0_0" index="0" allow="pedestrian" speed="2.78" length="12.80" width="4.00" shape="-574.67,12.99 -574.65,25.79" outlineShape="-572.67,12.99 -572.65,25.79 -576.65,25.79 -576.67,27.79 -572.65,27.79 -572.65,25.89 -576.65,25.79 -576.67,12.99 -572.67,12.99 -572.67,10.99 -576.65,10.99 -576.66,12.99"/>
    </edge>
    <edge id=":J4_c1" function="crossing" crossingEdges="-E0.80 E0">
        <lane id=":J4_c1_0" index="0" allow="pedestrian" speed="2.78" length="12.80" width="4.00" shape="-574.66,25.79 -574.66,12.99" outlineShape="-576.66,25.79 -576.66,12.99 -572.66,12.99 -576.67,12.99 -572.66,12.99 -572.66,25.79"/>
    </edge>
    <edge id=":J4_w0" function="walkingarea">
        <lane id=":J4_w0_0" index="0" allow="pedestrian" speed="2.78" length="2.16" width="4.00" shape="-572.66,25.79 -576.66,25.79 -576.67,27.79 -572.65,27.79 -572.65,25.79 -576.65,25.79"/>
    </edge>
    <edge id=":J4_w1" function="walkingarea">
        <lane id=":J4_w1_0" index="0" allow="pedestrian" speed="2.78" length="2.15" width="4.00" shape="-576.67,12.99 -572.67,12.99 -572.67,10.99 -576.65,10.99 -576.66,12.99 -572.66,12.99"/>
    </edge>
    <edge id=":J6_w0" function="walkingarea">
        <lane id=":J6_w0_0" index="0" allow="pedestrian" speed="2.78" length="9.60" width="12.80" shape="-136.60,362.65 -143.00,362.65 -130.20,362.65 -136.60,362.65"/>
    </edge>
    <edge id=":J8_0" function="internal">
        <lane id=":J8_0_0" index="0" speed="6.51" length="9.04" shape="439.14,29.68 438.79,27.23 437.74,25.48 435.99,24.43 433.53,24.07"/>
    </edge>
    <edge id=":J8_1" function="internal">
        <lane id=":J8_1_0" index="0" speed="13.89" length="20.80" shape="439.14,29.68 439.14,8.87"/>
        <lane id=":J8_1_1" index="1" speed="13.89" length="20.80" shape="442.34,29.68 442.34,8.87"/>
    </edge>
    <edge id=":J8_3" function="internal">
        <lane id=":J8_3_0" index="0" speed="13.89" length="19.36" shape="442.34,29.68 443.09,24.43 445.34,20.68 449.09,18.42 454.35,17.67"/>
    </edge>
    <edge id=":J8_4" function="internal">
        <lane id=":J8_4_0" index="0" speed="13.89" length="9.05" shape="454.35,24.07 451.90,24.42 450.14,25.47 449.09,27.22 448.74,29.68"/>
    </edge>
    <edge id=":J8_5" function="internal">
        <lane id=":J8_5_0" index="0" speed="13.89" length="20.82" shape="454.35,24.07 433.53,24.07"/>
        <lane id=":J8_5_1" index="1" speed="13.89" length="20.82" shape="454.35,20.87 433.54,20.87"/>
    </edge>
    <edge id=":J8_7" function="internal">
        <lane id=":J8_7_0" index="0" speed="13.89" length="19.36" shape="454.35,20.87 449.10,20.12 445.34,17.88 443.09,14.12 442.34,8.87"/>
    </edge>
    <edge id=":J8_8" function="internal">
        <lane id=":J8_8_0" index="0" speed="13.89" length="9.03" shape="448.74,8.87 449.09,11.32 450.14,13.07 451.89,14.12 454.34,14.47"/>
    </edge>
    <edge id=":J8_9" function="internal">
        <lane id=":J8_9_0" index="0" speed="13.89" length="20.80" shape="448.74,8.87 448.74,29.68"/>
        <lane id=":J8_9_1" index="1" speed="13.89" length="20.80" shape="445.54,8.87 445.54,29.68"/>
    </edge>
    <edge id=":J8_11" function="internal">
        <lane id=":J8_11_0" index="0" speed="13.89" length="19.36" shape="445.54,8.87 444.79,14.13 442.54,17.88 438.79,20.13 433.54,20.87"/>
    </edge>
    <edge id=":J8_12" function="internal">
        <lane id=":J8_12_0" index="0" speed="13.89" length="9.04" shape="433.54,14.47 435.99,14.12 437.74,13.07 438.79,11.32 439.14,8.87"/>
    </edge>
    <edge id=":J8_13" function="internal">
        <lane id=":J8_13_0" index="0" speed="13.89" length="20.81" shape="433.54,14.47 454.34,14.47"/>
        <lane id=":J8_13_1" index="1" speed="13.89" length="20.81" shape="433.54,17.67 454.35,17.67"/>
    </edge>
    <edge id=":J8_15" function="internal">
        <lane id=":J8_15_0" index="0" speed="13.89" length="19.35" shape="433.54,17.67 438.79,18.43 442.54,20.68 444.79,24.43 445.54,29.68"/>
    </edge>
    <edge id=":J8_w0" function="walkingarea">
        <lane id=":J8_w0_0" index="0" allow="pedestrian" speed="2.78" length="16.45" width="12.80" shape="437.54,29.68 450.34,29.68 450.79,27.45 451.34,26.67 452.13,26.11 453.13,25.78 454.36,25.67 454.34,12.87 452.12,12.43 451.34,11.87 450.79,11.09 450.45,10.09 450.34,8.87 437.54,8.87 437.10,11.10 436.54,11.87 435.76,12.43 434.76,12.76 433.54,12.87 433.53,25.67 435.76,26.12 436.54,26.68 437.10,27.45 437.43,28.45"/>
    </edge>
    <edge id=":J9_w0" function="walkingarea">
        <lane id=":J9_w0_0" index="0" allow="pedestrian" speed="2.78" length="9.60" width="12.80" shape="443.97,414.85 437.57,414.85 450.37,414.85 443.97,414.85"/>
    </edge>

    <edge id="-E0" from="J1" to="J4" priority="-1" >
        <lane id="-E0_0" index="0" allow="pedestrian" speed="13.89" length="427.87" width="2.00" shape="-144.79,26.34 -572.65,26.79"/>
        <lane id="-E0_1" index="1" disallow="pedestrian" speed="13.89" length="427.87" shape="-144.79,23.74 -572.66,24.19"/>
        <lane id="-E0_2" index="2" disallow="pedestrian" speed="13.89" length="427.87" shape="-144.79,20.54 -572.66,20.99"/>
    </edge>
    <edge id="-E0.80" from="J4" to="J0" priority="-1">
        <lane id="-E0.80_0" index="0" allow="pedestrian" speed="13.89" length="207.39" width="2.00" shape="-576.67,26.79 -784.06,26.63"/>
        <lane id="-E0.80_1" index="1" disallow="pedestrian" speed="13.89" length="207.39" shape="-576.66,24.19 -784.05,24.03"/>
        <lane id="-E0.80_2" index="2" disallow="pedestrian" speed="13.89" length="207.39" shape="-576.66,20.99 -784.05,20.83"/>
    </edge>
    <edge id="-E2" from="J6" to="J1" priority="-1">
        <lane id="-E2_0" index="0" speed="13.89" length="333.31" shape="-141.40,362.65 -141.19,29.34"/>
        <lane id="-E2_1" index="1" speed="13.89" length="333.31" shape="-138.20,362.65 -137.99,29.34"/>
    </edge>
    <edge id="-E3" from="J8" to="J1" priority="-1">
        <lane id="-E3_0" index="0" speed="13.89" length="561.52" shape="433.53,24.07 -127.98,23.74"/>
        <lane id="-E3_1" index="1" speed="13.89" length="561.52" shape="433.54,20.87 -127.98,20.54"/>
    </edge>
    <edge id="-E4" from="J9" to="J8" priority="-1">
        <lane id="-E4_0" index="0" speed="13.89" length="385.17" shape="439.17,414.85 439.14,29.68"/>
        <lane id="-E4_1" index="1" speed="13.89" length="385.17" shape="442.37,414.85 442.34,29.68"/>
    </edge>
    <edge id="-E5" from="J10" to="J8" priority="-1">
        <lane id="-E5_0" index="0" speed="13.89" length="485.34" shape="939.70,23.45 454.35,24.07"/>
        <lane id="-E5_1" index="1" speed="13.89" length="485.34" shape="939.69,20.25 454.35,20.87"/>
    </edge>
    <edge id="-E8" from="J13" to="J8" priority="-1">
        <lane id="-E8_0" index="0" speed="13.89" length="329.34" shape="448.77,-320.47 448.74,8.87"/>
        <lane id="-E8_1" index="1" speed="13.89" length="329.34" shape="445.57,-320.47 445.54,8.87"/>
    </edge>
    <edge id="E0" from="J0" to="J4" priority="-1">
        <lane id="E0_0" index="0" allow="pedestrian" speed="13.89" length="207.39" width="2.00" shape="-784.04,11.83 -576.65,11.99"/>
        <lane id="E0_1" index="1" disallow="pedestrian" speed="13.89" length="207.39" shape="-784.05,14.43 -576.66,14.59"/>
        <lane id="E0_2" index="2" disallow="pedestrian" speed="13.89" length="207.39" shape="-784.05,17.63 -576.66,17.79"/>
    </edge>
    <edge id="E00" from="J4" to="J1" priority="-1">
        <lane id="E00_0" index="0" allow="pedestrian" speed="13.89" length="427.87" width="2.00" shape="-572.67,11.99 -144.80,11.54"/>
        <lane id="E00_1" index="1" disallow="pedestrian" speed="13.89" length="427.87" shape="-572.67,14.59 -144.80,14.14"/>
        <lane id="E00_2" index="2" disallow="pedestrian" speed="13.89" length="427.87" shape="-572.66,17.79 -144.80,17.34"/>
    </edge>
    <edge id="E2" from="J1" to="J6" priority="-1">
        <lane id="E2_0" index="0" speed="13.89" length="333.31" shape="-131.59,29.34 -131.80,362.65"/>
        <lane id="E2_1" index="1" speed="13.89" length="333.31" shape="-134.79,29.34 -135.00,362.65"/>
    </edge>
    <edge id="E3" from="J1" to="J8" priority="-1">
        <lane id="E3_0" index="0" speed="13.89" length="561.52" shape="-127.98,14.14 433.54,14.47"/>
        <lane id="E3_1" index="1" speed="13.89" length="561.52" shape="-127.98,17.34 433.54,17.67"/>
    </edge>
    <edge id="E4" from="J8" to="J9" priority="-1">
        <lane id="E4_0" index="0" speed="13.89" length="385.17" shape="448.74,29.68 448.77,414.85"/>
        <lane id="E4_1" index="1" speed="13.89" length="385.17" shape="445.54,29.68 445.57,414.85"/>
    </edge>
    <edge id="E5" from="J8" to="J10" priority="-1">
        <lane id="E5_0" index="0" speed="13.89" length="485.34" shape="454.34,14.47 939.68,13.85"/>
        <lane id="E5_1" index="1" speed="13.89" length="485.34" shape="454.35,17.67 939.69,17.05"/>
    </edge>
    <edge id="E8" from="J8" to="J13" priority="-1">
        <lane id="E8_0" index="0" speed="13.89" length="329.34" shape="439.14,8.87 439.17,-320.47"/>
        <lane id="E8_1" index="1" speed="13.89" length="329.34" shape="442.34,8.87 442.37,-320.47"/>
    </edge>

    <tlLogic id="J1" type="static" programID="0" offset="0">
        <phase duration="140" state="GGGrrrrrr"/> 
        <phase duration="30"  state="yyyyyyrrr"/>
        <phase duration="140" state="rrrGGGrrr"/> 
        <phase duration="30"  state="rrryyyyyy"/>
        <phase duration="140" state="rrrrrrGGG"/>
        <phase duration="30"  state="yyyrrryyy"/>
    </tlLogic>
    <tlLogic id="J4" type="static" programID="0" offset="0">
        <phase duration="260" state="GGGGGGrr"/>
        <phase duration="15"  state="yyyyyyyy"/>
        <phase duration="130" state="rrrrrrGG"/>
    </tlLogic>
    <tlLogic id="J8" type="static" programID="0" offset="0">
        <phase duration="140" state="GGGGrrrrrrrrrrrr"/>
        <phase duration="30"  state="yyyyyyyyrrrrrrrr"/>
        <phase duration="140" state="rrrrGGGGrrrrrrrr"/>
        <phase duration="30"  state="rrrryyyyyyyyrrrr"/>
        <phase duration="140" state="rrrrrrrrGGGGrrrr"/>
        <phase duration="30"  state="rrrrrrrryyyyyyyy"/>
        <phase duration="140" state="rrrrrrrrrrrrGGGG"/>
        <phase duration="30"  state="yyyyrrrrrrrryyyy"/>
        <phase duration="30"  state="yyyyrrrryyyyrrrr"/>
        <phase duration="30"  state="rrrryyyyrrrryyyy"/>
    </tlLogic>

    <junction id="J0" type="dead_end" x="-784.05" y="19.23" incLanes="-E0.80_0 -E0.80_1 -E0.80_2" intLanes="" shape="-784.05,19.23 -784.06,27.63 -784.05,19.23"/>
    <junction id="J1" type="traffic_light" x="-136.38" y="18.93" incLanes="-E3_0 -E3_1 E00_0 E00_1 E00_2 -E2_0 -E2_1" intLanes=":J1_0_0 :J1_1_0 :J1_1_1 :J1_3_0 :J1_3_1 :J1_5_0 :J1_6_0 :J1_6_1 :J1_8_0" shape="-127.98,25.34 -127.98,12.54 -131.58,12.38 -134.22,12.01 -138.56,11.05 -141.20,10.68 -144.80,10.54 -144.79,27.34 -143.67,27.56 -143.29,27.84 -143.01,28.23 -142.84,28.73 -142.79,29.34 -129.99,29.34 -129.76,27.12 -129.48,26.34 -129.10,25.78 -128.60,25.45">
        <request index="0" response="000000000" foes="000000000" cont="0"/>
        <request index="1" response="000000000" foes="111100000" cont="0"/>
        <request index="2" response="000000000" foes="111100000" cont="0"/>
        <request index="3" response="000000000" foes="100000000" cont="0"/>
        <request index="4" response="000000000" foes="100000000" cont="0"/>
        <request index="5" response="000000110" foes="100000110" cont="0"/>
        <request index="6" response="000000110" foes="000000110" cont="0"/>
        <request index="7" response="000000110" foes="000000110" cont="0"/>
        <request index="8" response="000111110" foes="000111110" cont="0"/>
    </junction>
    <junction id="J10" type="dead_end" x="939.69" y="18.65" incLanes="E5_0 E5_1" intLanes="" shape="939.69,18.65 939.68,12.25 939.69,18.65"/>
    <junction id="J13" type="dead_end" x="443.97" y="-320.47" incLanes="E8_0 E8_1" intLanes="" shape="443.97,-320.47 437.57,-320.47 443.97,-320.47"/>
    <junction id="J4" type="traffic_light" x="-574.66" y="19.39" incLanes="-E0_0 -E0_1 -E0_2 E0_0 E0_1 E0_2 :J4_w1_0 :J4_w0_0" intLanes=":J4_0_0 :J4_0_1 :J4_0_2 :J4_3_0 :J4_3_1 :J4_3_2 :J4_c0_0 :J4_c1_0" shape="-572.65,27.79 -572.67,10.99 -576.65,10.99 -576.67,27.79">
        <request index="0" response="11000000" foes="11000000" cont="0"/>
        <request index="1" response="11000000" foes="11000000" cont="0"/>
        <request index="2" response="11000000" foes="11000000" cont="0"/>
        <request index="3" response="11000000" foes="11000000" cont="0"/>
        <request index="4" response="11000000" foes="11000000" cont="0"/>
        <request index="5" response="11000000" foes="11000000" cont="0"/>
        <request index="6" response="00000000" foes="00111111" cont="0"/>
        <request index="7" response="00000000" foes="00111111" cont="0"/>
    </junction>
    <junction id="J6" type="dead_end" x="-136.60" y="362.65" incLanes="E2_0 E2_1" intLanes="" shape="-136.60,362.65 -130.20,362.65 -136.60,362.65"/>
    <junction id="J8" type="traffic_light" x="443.94" y="19.28" incLanes="-E4_0 -E4_1 -E5_0 -E5_1 -E8_0 -E8_1 E3_0 E3_1" intLanes=":J8_0_0 :J8_1_0 :J8_1_1 :J8_3_0 :J8_4_0 :J8_5_0 :J8_5_1 :J8_7_0 :J8_8_0 :J8_9_0 :J8_9_1 :J8_11_0 :J8_12_0 :J8_13_0 :J8_13_1 :J8_15_0" shape="437.54,29.68 450.34,29.68 450.79,27.45 451.34,26.67 452.13,26.11 453.13,25.78 454.36,25.67 454.34,12.87 452.12,12.43 451.34,11.87 450.79,11.09 450.45,10.09 450.34,8.87 437.54,8.87 437.10,11.10 436.54,11.87 435.76,12.43 434.76,12.76 433.54,12.87 433.53,25.67 435.76,26.12 436.54,26.68 437.10,27.45 437.43,28.45">
        <request index="0"  response="0000000000000000" foes="0000000001100000" cont="0"/>
        <request index="1"  response="0000000000000000" foes="1111100011100000" cont="0"/>
        <request index="2"  response="0000000000000000" foes="1111100011100000" cont="0"/>
        <request index="3"  response="0000011000000000" foes="1110011011100000" cont="0"/>
        <request index="4"  response="0000011000000000" foes="0000011000000000" cont="0"/>
        <request index="5"  response="0000111000001111" foes="1000111000001111" cont="0"/>
        <request index="6"  response="0000111000001111" foes="1000111000001111" cont="0"/>
        <request index="7"  response="0110111000001110" foes="0110111000001110" cont="0"/>
        <request index="8"  response="0000000000000000" foes="0110000000000000" cont="0"/>
        <request index="9"  response="0000000000000000" foes="1110000011111000" cont="0"/>
        <request index="10" response="0000000000000000" foes="1110000011111000" cont="0"/>
        <request index="11" response="0000000000000110" foes="1110000011100110" cont="0"/>
        <request index="12" response="0000000000000110" foes="0000000000000110" cont="0"/>
        <request index="13" response="0000111100001110" foes="0000111110001110" cont="0"/>
        <request index="14" response="0000111100001110" foes="0000111110001110" cont="0"/>
        <request index="15" response="0000111001101110" foes="0000111001101110" cont="0"/>
    </junction>
    <junction id="J9" type="dead_end" x="443.97" y="414.85" incLanes="E4_0 E4_1" intLanes="" shape="443.97,414.85 450.37,414.85 443.97,414.85"/>

    <connection from="-E0" to="-E0.80" fromLane="0" toLane="0" via=":J4_0_0" tl="J4" linkIndex="0" dir="s" state="o"/>
    <connection from="-E0" to="-E0.80" fromLane="1" toLane="1" via=":J4_0_1" tl="J4" linkIndex="1" dir="s" state="o"/>
    <connection from="-E0" to="-E0.80" fromLane="2" toLane="2" via=":J4_0_2" tl="J4" linkIndex="2" dir="s" state="o"/>
    <connection from="-E2" to="-E0" fromLane="0" toLane="1" via=":J1_6_0" tl="J1" linkIndex="6" dir="r" state="o"/>
    <connection from="-E2" to="-E0" fromLane="1" toLane="2" via=":J1_6_1" tl="J1" linkIndex="7" dir="r" state="o"/>
    <connection from="-E2" to="E3" fromLane="1" toLane="1" via=":J1_8_0" tl="J1" linkIndex="8" dir="l" state="o"/>
    <connection from="-E3" to="E2" fromLane="0" toLane="0" via=":J1_0_0" tl="J1" linkIndex="0" dir="r" state="O"/>
    <connection from="-E3" to="-E0" fromLane="0" toLane="1" via=":J1_1_0" tl="J1" linkIndex="1" dir="s" state="O"/>
    <connection from="-E3" to="-E0" fromLane="1" toLane="2" via=":J1_1_1" tl="J1" linkIndex="2" dir="s" state="O"/>
    <connection from="-E4" to="-E3" fromLane="0" toLane="0" via=":J8_0_0" tl="J8" linkIndex="0" dir="r" state="O"/>
    <connection from="-E4" to="E8" fromLane="0" toLane="0" via=":J8_1_0" tl="J8" linkIndex="1" dir="s" state="O"/>
    <connection from="-E4" to="E8" fromLane="1" toLane="1" via=":J8_1_1" tl="J8" linkIndex="2" dir="s" state="O"/>
    <connection from="-E4" to="E5" fromLane="1" toLane="1" via=":J8_3_0" tl="J8" linkIndex="3" dir="l" state="o"/>
    <connection from="-E5" to="E4" fromLane="0" toLane="0" via=":J8_4_0" tl="J8" linkIndex="4" dir="r" state="o"/>
    <connection from="-E5" to="-E3" fromLane="0" toLane="0" via=":J8_5_0" tl="J8" linkIndex="5" dir="s" state="o"/>
    <connection from="-E5" to="-E3" fromLane="1" toLane="1" via=":J8_5_1" tl="J8" linkIndex="6" dir="s" state="o"/>
    <connection from="-E5" to="E8" fromLane="1" toLane="1" via=":J8_7_0" tl="J8" linkIndex="7" dir="l" state="o"/>
    <connection from="-E8" to="E5" fromLane="0" toLane="0" via=":J8_8_0" tl="J8" linkIndex="8" dir="r" state="O"/>
    <connection from="-E8" to="E4" fromLane="0" toLane="0" via=":J8_9_0" tl="J8" linkIndex="9" dir="s" state="O"/>
    <connection from="-E8" to="E4" fromLane="1" toLane="1" via=":J8_9_1" tl="J8" linkIndex="10" dir="s" state="O"/>
    <connection from="-E8" to="-E3" fromLane="1" toLane="1" via=":J8_11_0" tl="J8" linkIndex="11" dir="l" state="o"/>
    <connection from="E0" to="E00" fromLane="0" toLane="0" via=":J4_3_0" tl="J4" linkIndex="3" dir="s" state="o"/>
    <connection from="E0" to="E00" fromLane="1" toLane="1" via=":J4_3_1" tl="J4" linkIndex="4" dir="s" state="o"/>
    <connection from="E0" to="E00" fromLane="2" toLane="2" via=":J4_3_2" tl="J4" linkIndex="5" dir="s" state="o"/>
    <connection from="E00" to="E3" fromLane="1" toLane="0" via=":J1_3_0" tl="J1" linkIndex="3" dir="s" state="O"/>
    <connection from="E00" to="E3" fromLane="2" toLane="1" via=":J1_3_1" tl="J1" linkIndex="4" dir="s" state="O"/>
    <connection from="E00" to="E2" fromLane="2" toLane="1" via=":J1_5_0" tl="J1" linkIndex="5" dir="l" state="o"/>
    <connection from="E3" to="E8" fromLane="0" toLane="0" via=":J8_12_0" tl="J8" linkIndex="12" dir="r" state="o"/>
    <connection from="E3" to="E5" fromLane="0" toLane="0" via=":J8_13_0" tl="J8" linkIndex="13" dir="s" state="o"/>
    <connection from="E3" to="E5" fromLane="1" toLane="1" via=":J8_13_1" tl="J8" linkIndex="14" dir="s" state="o"/>
    <connection from="E3" to="E4" fromLane="1" toLane="1" via=":J8_15_0" tl="J8" linkIndex="15" dir="l" state="o"/>

    <connection from=":J1_0" to="E2" fromLane="0" toLane="0" dir="r" state="M"/>
    <connection from=":J1_1" to="-E0" fromLane="0" toLane="1" dir="s" state="M"/>
    <connection from=":J1_1" to="-E0" fromLane="1" toLane="2" dir="s" state="M"/>
    <connection from=":J1_3" to="E3" fromLane="0" toLane="0" dir="s" state="M"/>
    <connection from=":J1_3" to="E3" fromLane="1" toLane="1" dir="s" state="M"/>
    <connection from=":J1_5" to="E2" fromLane="0" toLane="1" dir="l" state="M"/>
    <connection from=":J1_6" to="-E0" fromLane="0" toLane="1" dir="r" state="M"/>
    <connection from=":J1_6" to="-E0" fromLane="1" toLane="2" dir="r" state="M"/>
    <connection from=":J1_8" to="E3" fromLane="0" toLane="1" dir="l" state="M"/>
    <connection from=":J4_0" to="-E0.80" fromLane="0" toLane="0" dir="s" state="M"/>
    <connection from=":J4_0" to="-E0.80" fromLane="1" toLane="1" dir="s" state="M"/>
    <connection from=":J4_0" to="-E0.80" fromLane="2" toLane="2" dir="s" state="M"/>
    <connection from=":J4_3" to="E00" fromLane="0" toLane="0" dir="s" state="M"/>
    <connection from=":J4_3" to="E00" fromLane="1" toLane="1" dir="s" state="M"/>
    <connection from=":J4_3" to="E00" fromLane="2" toLane="2" dir="s" state="M"/>
    <connection from=":J8_0" to="-E3" fromLane="0" toLane="0" dir="r" state="M"/>
    <connection from=":J8_1" to="E8" fromLane="0" toLane="0" dir="s" state="M"/>
    <connection from=":J8_1" to="E8" fromLane="1" toLane="1" dir="s" state="M"/>
    <connection from=":J8_3" to="E5" fromLane="0" toLane="1" dir="l" state="M"/>
    <connection from=":J8_4" to="E4" fromLane="0" toLane="0" dir="r" state="M"/>
    <connection from=":J8_5" to="-E3" fromLane="0" toLane="0" dir="s" state="M"/>
    <connection from=":J8_5" to="-E3" fromLane="1" toLane="1" dir="s" state="M"/>
    <connection from=":J8_7" to="E8" fromLane="0" toLane="1" dir="l" state="M"/>
    <connection from=":J8_8" to="E5" fromLane="0" toLane="0" dir="r" state="M"/>
    <connection from=":J8_9" to="E4" fromLane="0" toLane="0" dir="s" state="M"/>
    <connection from=":J8_9" to="E4" fromLane="1" toLane="1" dir="s" state="M"/>
    <connection from=":J8_11" to="-E3" fromLane="0" toLane="1" dir="l" state="M"/>
    <connection from=":J8_12" to="E8" fromLane="0" toLane="0" dir="r" state="M"/>
    <connection from=":J8_13" to="E5" fromLane="0" toLane="0" dir="s" state="M"/>
    <connection from=":J8_13" to="E5" fromLane="1" toLane="1" dir="s" state="M"/>
    <connection from=":J8_15" to="E4" fromLane="0" toLane="1" dir="l" state="M"/>

    <connection from=":J0_w0" to="E0" fromLane="0" toLane="0" dir="s" state="M"/>
    <connection from="-E0.80" to=":J0_w0" fromLane="0" toLane="0" dir="s" state="M"/>
    <connection from=":J1_w0" to="-E0" fromLane="0" toLane="0" dir="s" state="M"/>
    <connection from=":J1_w0" to="E2" fromLane="0" toLane="0" dir="s" state="M"/>
    <connection from=":J1_w0" to="E3" fromLane="0" toLane="0" dir="s" state="M"/>
    <connection from="-E2" to=":J1_w0" fromLane="0" toLane="0" dir="s" state="M"/>
    <connection from="-E3" to=":J1_w0" fromLane="0" toLane="0" dir="s" state="M"/>
    <connection from="E00" to=":J1_w0" fromLane="0" toLane="0" dir="s" state="M"/>
    <connection from=":J10_w0" to="-E5" fromLane="0" toLane="0" dir="s" state="M"/>
    <connection from="E5" to=":J10_w0" fromLane="0" toLane="0" dir="s" state="M"/>
    <connection from=":J13_w0" to="-E8" fromLane="0" toLane="0" dir="s" state="M"/>
    <connection from="E8" to=":J13_w0" fromLane="0" toLane="0" dir="s" state="M"/>
    <connection from=":J4_c0" to=":J4_w0" fromLane="0" toLane="0" dir="s" state="M"/>
    <connection from=":J4_c1" to=":J4_w1" fromLane="0" toLane="0" dir="s" state="M"/>
    <connection from=":J4_w0" to=":J4_c1" fromLane="0" toLane="0" tl="J4" linkIndex="7" dir="s" state="M"/>
    <connection from=":J4_w0" to="-E0.80" fromLane="0" toLane="0" dir="s" state="M"/>
    <connection from="-E0" to=":J4_w0" fromLane="0" toLane="0" dir="s" state="M"/>
    <connection from=":J4_w1" to=":J4_c0" fromLane="0" toLane="0" tl="J4" linkIndex="6" dir="s" state="M"/>
    <connection from=":J4_w1" to="E00" fromLane="0" toLane="0" dir="s" state="M"/>
    <connection from="E0" to=":J4_w1" fromLane="0" toLane="0" dir="s" state="M"/>
    <connection from=":J6_w0" to="-E2" fromLane="0" toLane="0" dir="s" state="M"/>
    <connection from="E2" to=":J6_w0" fromLane="0" toLane="0" dir="s" state="M"/>
    <connection from=":J8_w0" to="E4" fromLane="0" toLane="0" dir="s" state="M"/>
    <connection from=":J8_w0" to="E5" fromLane="0" toLane="0" dir="s" state="M"/>
    <connection from=":J8_w0" to="E8" fromLane="0" toLane="0" dir="s" state="M"/>
    <connection from=":J8_w0" to="-E3" fromLane="0" toLane="0" dir="s" state="M"/>
    <connection from="-E4" to=":J8_w0" fromLane="0" toLane="0" dir="s" state="M"/>
    <connection from="-E5" to=":J8_w0" fromLane="0" toLane="0" dir="s" state="M"/>
    <connection from="-E8" to=":J8_w0" fromLane="0" toLane="0" dir="s" state="M"/>
    <connection from="E3" to=":J8_w0" fromLane="0" toLane="0" dir="s" state="M"/>
    <connection from=":J9_w0" to="-E4" fromLane="0" toLane="0" dir="s" state="M"/>
    <connection from="E4" to=":J9_w0" fromLane="0" toLane="0" dir="s" state="M"/>
</net>
