<?xml version="1.0" encoding="UTF-8"?>
<routes xmlns:xsi="http://www.w3.org/2001/XMLSchema-instance" xsi:noNamespaceSchemaLocation="http://sumo.dlr.de/xsd/routes_file.xsd">
    <!-- Add vehicle type definitions with lower speeds -->
    <vType id="car" accel="2.00" decel="1.50" sigma="0.5" length="5.0" maxSpeed="3.00" color="yellow"/>
    <vType id="real_car" accel="2.00" decel="1.50" sigma="0.5" length="5.0" maxSpeed="3.00" color="green"/> 
    <vType id="bus" accel="2.00" decel="1.50" sigma="0.5" length="12.0" maxSpeed="2.50" color="blue" guiShape="bus"/>
    <vType id="truck" accel="2.00" decel="1.50" sigma="0.5" length="7.0" maxSpeed="2.00" color="red" guiShape="truck"/>
    <vType id="lorry" accel="2.00" decel="1.50" sigma="0.5" length="8.0" maxSpeed="2.00" color="orange" guiShape="truck"/>
    <vType id="bike" accel="2.00" decel="1.50" sigma="0.5" length="3.0" maxSpeed="2.80" color="cyan" guiShape="motorcycle"/>
    <vType id="auto" accel="2.00" decel="1.50" sigma="0.5" length="6.0" maxSpeed="3.00" color="magenta" guiShape="taxi"/>

    <!-- Adult pedestrian: Standard walking speed -->
    <vType id="adult" vClass="pedestrian" maxSpeed="0.50" color="green"/>

    <!-- Elder pedestrian: Slower walking speed -->
    <vType id="elder" vClass="pedestrian" maxSpeed="0.45" color="gray"/>

    <!-- Student pedestrian: Medium walking speed, could also use "child" vClass if preferred -->
    <vType id="student" vClass="pedestrian" maxSpeed="0.40" color="yellow"/>

    <!-- Mobility aid pedestrian: Slowest speed, representing wheelchair or walker users -->
    <vType id="mobility_aid" vClass="pedestrian" maxSpeed="0.30" color="blue"/>

    <!-- Emergency Vehicles (higher priority, faster, special colors) -->
    <vType id="police" accel="2.00" decel="1.50" sigma="0.3" length="6.0" maxSpeed="6.00" guiShape="police" probability="0.1"/>
    <!-- Police: Blue, 80 km/h -->
    
    <vType id="ambulance" accel="2.00" decel="1.50" sigma="0.3" length="8.0" maxSpeed="6.00" guiShape="emergency" probability="0.1"/>
    <!-- Ambulance: White, 70 km/h -->
    
    <vType id="firetruck" accel="2.00" decel="1.50" sigma="0.3" length="10.0" maxSpeed="6.00" guiShape="firebrigade" probability="0.05"/>
    <!-- Fire Truck: Red, 60 km/h -->

    
    <!-- Update flows to use car type -->
    <flow id="f_0" begin="0.00" from="E0" to="E2" via="E00" end="9999999999.00" vehsPerHour="20" type="car" departLane="best"/>
    <flow id="f_1" begin="0.00" from="E0" to="E4" via="E00 E3" end="9999999999.00" vehsPerHour="20" type="car" departLane="best"/>
    <flow id="f_2" begin="0.00" from="E0" to="E5" via="E00 E3" end="9999999999.00" vehsPerHour="20" type="car" departLane="best"/>
    <flow id="f_3" begin="0.00" from="E0" to="E8" via="E00 E3" end="9999999999.00" vehsPerHour="20" type="car" departLane="best"/>
    <flow id="f_4" begin="0.00" from="-E2" to="-E0.80" via="-E0" end="9999999999.00" vehsPerHour="20" type="car" departLane="best"/>
    <flow id="f_5" begin="0.00" from="-E2" to="E4" via="E3" end="9999999999.00" vehsPerHour="10" type="car" departLane="best"/>
    <flow id="f_6" begin="0.00" from="-E2" to="E5" via="E3" end="9999999999.00" vehsPerHour="10" type="car" departLane="best"/>
    <flow id="f_7" begin="0.00" from="-E2" to="E8" via="E3" end="9999999999.00" vehsPerHour="10" type="car" departLane="best"/>
    <flow id="f_8" begin="0.00" from="-E4" to="E2" via="-E3" end="9999999999.00" vehsPerHour="10" type="car" departLane="best"/>
    <flow id="f_9" begin="0.00" from="-E4" to="-E0.80" via="-E3 -E0" end="9999999999.00" vehsPerHour="10" type="car" departLane="best"/>
    <flow id="f_10" begin="0.00" from="-E4" to="E5" end="9999999999.00" vehsPerHour="40" type="car" departLane="best"/>
    <flow id="f_11" begin="0.00" from="-E4" to="E8" end="9999999999.00" vehsPerHour="30" type="car" departLane="best"/>
    <flow id="f_12" begin="0.00" from="-E5" to="E4" end="9999999999.00" vehsPerHour="20" type="car" departLane="best"/>
    <flow id="f_13" begin="0.00" from="-E5" to="E8" end="9999999999.00" vehsPerHour="24" type="car" departLane="best"/>
    <flow id="f_14" begin="0.00" from="-E5" to="E2" via="-E3" end="9999999999.00" vehsPerHour="20" type="car" departLane="best"/>
    <flow id="f_15" begin="0.00" from="-E5" to="-E0.80" via="-E3 -E0" end="9999999999.00" vehsPerHour="20" type="car" departLane="best"/>
    <flow id="f_16" begin="0.00" from="-E8" to="E5" end="9999999999.00" vehsPerHour="15" type="car" departLane="best"/>
    <flow id="f_17" begin="0.00" from="-E8" to="E4" end="9999999999.00" vehsPerHour="15" type="car" departLane="best"/>
    <flow id="f_18" begin="0.00" from="-E8" to="E2" via="-E3" end="9999999999.00" vehsPerHour="20" type="car" departLane="best"/>
    <flow id="f_19" begin="0.00" from="-E8" to="-E0" via="-E3" end="9999999999.00" vehsPerHour="20" type="car" departLane="best"/>
    <flow id="f_20" begin="0.00" from="-E2" to="E4" via="E3" end="9999999999.00" vehsPerHour="13" type="car" departLane="best"/>
    <flow id="f_21" begin="0.00" from="-E4" to="E5" end="9999999999.00" vehsPerHour="15" type="car" departLane="best"/>
    <flow id="f_22" begin="0.00" from="-E5" to="E4" end="9999999999.00" vehsPerHour="20" type="car" departLane="best"/>
    <flow id="f_23" begin="0.00" from="E0" to="E8" via="E00 E3" end="9999999999.00" vehsPerHour="20" type="car" departLane="best"/>
    
    <!-- Person flows with proper pedestrian type -->
    <!-- <personFlow id="pf_10" begin="0.00" end="9999999999.00" personsPerHour="40" type="adult">
        <personTrip from="E00" to="-E0.80"/>
    </personFlow>
    <personFlow id="pf_13" begin="0.00" end="9999999999.00" personsPerHour="20" type="elder">
        <personTrip from="E00" to="-E0"/>
    </personFlow>
    <personFlow id="pf_4" begin="0.00" end="9999999999.00" personsPerHour="40" type="student">
        <personTrip from="-E0.80" to="E00"/>
    </personFlow>
    <personFlow id="pf_8" begin="0.00" end="9999999999.00" personsPerHour="5" type="mobility_aid">
        <personTrip from="-E0.80" to="E0"/>
    </personFlow> -->
    <!-- <personFlow id="pf_10" begin="0.00" end="9999999999.00" personsPerHour="40" type="adult">
        <personTrip from="E0" to="-E0.80"/>
    </personFlow>
    <personFlow id="pf_13" begin="0.00" end="9999999999.00" personsPerHour="40" type="elder">
        <personTrip from="E0" to="-E0"/>
    </personFlow>
    <personFlow id="pf_4" begin="0.00" end="9999999999.00" personsPerHour="40" type="student">
        <personTrip from="-E0" to="E00"/>
    </personFlow>
    <personFlow id="pf_8" begin="0.00" end="9999999999.00" personsPerHour="40" type="mobility_aid">
        <personTrip from="-E0" to="E0"/>
    </personFlow> -->
</routes>